
This summary information was generated by AeroDyn on 10-Jul-2023 at 11:49:27.

======  General Options  ============================================================================
            0  WakeMod        - Type of wake/induction model: steady
            2  AFAeroMod      - Type of blade airfoil aerodynamics model: Beddoes-Leishman unsteady model
            1  TwrPotent      - Type tower influence on wind based on potential flow around the tower: baseline potential flow
            0  TwrShadow      - Calculate tower influence on wind based on downstream tower shadow: none
            T  TwrAero        - Calculate tower aerodynamic loads? Yes
======  Beddoes-Leishman Unsteady Airfoil Aerodynamics Options  =====================================
            3  UAMod          - Unsteady Aero Model: Minnema/Pierce variant (changes in Cc and Cm)
            T  FLookup        - Use a lookup for f'? Yes
======  Outputs  ====================================================================================
            0  NBlOuts        - Number of blade nodes selected for output
            0  NTwOuts        - Number of tower nodes selected for output
               Requested Output Channels:
               Col   Parameter       Units
               ----  --------------  -----
                  0  Time                 (s)                 
                  1  RtAeroFxh            (N)                 
                  2  RtAeroFyh            (N)                 
                  3  RtAeroFzh            (N)                 
                  4  RtAeroMxh            (N-m)               
                  5  RtAeroMyh            (N-m)               
                  6  RtAeroMzh            (N-m)               
                  7  RtVAvgxh             (m/s)               
                  8  RtAeroCp             (-)                 
                  9  RtTSR                (-)                 


               Requested Output Channels at each blade station:
               Col   Parameter       Units
               ----  --------------  -----
